*Heading
** Job name: Job-1 Model name: Model-1
** Generated by: Abaqus/CAE 2020
*Preprint, echo=NO, model=NO, history=NO, contact=NO
**
** PARTS
**
*Part, name=Tube
*Node
      1, -0.00887135696, 0.00461508753,           0.
      2, -0.00443738233, 0.00230426551,           0.
      3, -0.00350742228, -0.00356342364,           0.
      4, -0.00700956257, -0.00713204267,           0.
      5, 0.00707106758, 0.00707106758,           0.
      6, 0.00353553379, 0.00353553379,           0.
      7, 0.00226993486, -0.00445504161,           0.
      8, 0.00453994842, -0.00891004317,           0.
      9, -0.00733721582, 0.00380973611,           0.
     10, -0.00594235212, 0.00309946039,           0.
     11, -0.00472321082, 0.00164051226,           0.
     12, -0.00490728114, 0.000958432909,           0.
     13, -0.00499307876, 0.000262990419,           0.
     14, -0.00498100696, -0.00043539668,           0.
     15, -0.00487183593, -0.00112481799,           0.
     16, -0.00466787489, -0.00179191027,           0.
     17, -0.00437183119, -0.00242633279,           0.
     18, -0.00398375606, -0.00302153756,           0.
     19, -0.00470875157, -0.00474739075,           0.
     20, -0.00578700006, -0.00588786369,           0.
** ... 26384 like lines cut
*Element, type=C3D8
    1,   165,   173,   255,   192,     1,     9,    91,    28
    2,   173,   174,   256,   255,     9,    10,    92,    91
    3,   174,   166,   175,   256,    10,     2,    11,    92
    4,   192,   255,   257,   191,    28,    91,    93,    27
    5,   255,   256,   258,   257,    91,    92,    94,    93
    6,   256,   175,   176,   258,    92,    11,    12,    94
    7,   191,   257,   259,   190,    27,    93,    95,    26
    8,   257,   258,   260,   259,    93,    94,    96,    95
    9,   258,   176,   177,   260,    94,    12,    13,    96
   10,   190,   259,   261,   189,    26,    95,    97,    25
   11,   259,   260,   262,   261,    95,    96,    98,    97
   12,   260,   177,   178,   262,    96,    13,    14,    98
   13,   189,   261,   263,   188,    25,    97,    99,    24
   14,   261,   262,   264,   263,    97,    98,   100,    99
   15,   262,   178,   179,   264,    98,    14,    15,   100
   16,   188,   263,   265,   187,    24,    99,   101,    23
   17,   263,   264,   266,   265,    99,   100,   102,   101
   18,   264,   179,   180,   266,   100,    15,    16,   102
   19,   187,   265,   267,   186,    23,   101,   103,    22
   20,   265,   266,   268,   267,   101,   102,   104,   103
** ... 19660 like lines cut
*Nset, nset=Tube, generate
     1,  26404,      1
*Elset, elset=Tube, generate
     1,  19680,      1
** Section: Section-1
*Solid Section, elset=Tube, material=Material-1
,
*End Part
**  
**
** ASSEMBLY
**
*Assembly, name=Assembly
**  
*Instance, name=Tube-1, part=Tube
*End Instance
**  
*Nset, nset=AlongZ-In, instance=Tube-1
     3,    62,   167,   226,   331,   390,   495,   554,   659,   718,   823,   882,   987,  1046,  1151,  1210
  1315,  1374,  1479,  1538,  1643,  1702,  1807,  1866,  1971,  2030,  2135,  2194,  2299,  2358,  2463,  2522
  2627,  2686,  2791,  2850,  2955,  3014,  3119,  3178,  3283,  3342,  3447,  3506,  3611,  3670,  3775,  3834
  3939,  3998,  4103,  4162,  4267,  4326,  4431,  4490,  4595,  4654,  4759,  4818,  4923,  4982,  5087,  5146
  5251,  5310,  5415,  5474,  5579,  5638,  5743,  5802,  5907,  5966,  6071,  6130,  6235,  6294,  6399,  6458
  6563,  6622,  6727,  6786,  6891,  6950,  7055,  7114,  7219,  7278,  7383,  7442,  7547,  7606,  7711,  7770
  7875,  7934,  8039,  8098,  8203,  8262,  8367,  8426,  8531,  8590,  8695,  8754,  8859,  8918,  9023,  9082
  9187,  9246,  9351,  9410,  9515,  9574,  9679,  9738,  9843,  9902, 10007, 10066, 10171, 10230, 10335, 10394
 10499, 10558, 10663, 10722, 10827, 10886, 10991, 11050, 11155, 11214, 11319, 11378, 11483, 11542, 11647, 11706
 11811, 11870, 11975, 12034, 12139, 12198, 12303, 12362, 12467, 12526, 12631, 12690, 12795, 12854, 12959, 13018
 13123, 13182, 13287, 13346, 13451, 13510, 13615, 13674, 13779, 13838, 13943, 14002, 14107, 14166, 14271, 14330
 14435, 14494, 14599, 14658, 14763, 14822, 14927, 14986, 15091, 15150, 15255, 15314, 15419, 15478, 15583, 15642
 15747, 15806, 15911, 15970, 16075, 16134, 16239, 16298, 16403, 16462, 16567, 16626, 16731, 16790, 16895, 16954
 17059, 17118, 17223, 17282, 17387, 17446, 17551, 17610, 17715, 17774, 17879, 17938, 18043, 18102, 18207, 18266
 18371, 18430, 18535, 18594, 18699, 18758, 18863, 18922, 19027, 19086, 19191, 19250, 19355, 19414, 19519, 19578
 19683, 19742, 19847, 19906, 20011, 20070, 20175, 20234, 20339, 20398, 20503, 20562, 20667, 20726, 20831, 20890
 20995, 21054, 21159, 21218, 21323, 21382, 21487, 21546, 21651, 21710, 21815, 21874, 21979, 22038, 22143, 22202
 22307, 22366, 22471, 22530, 22635, 22694, 22799, 22858, 22963, 23022, 23127, 23186, 23291, 23350, 23455, 23514
 23619, 23678, 23783, 23842, 23947, 24006, 24111, 24170, 24275, 24334, 24439, 24498, 24603, 24662, 24767, 24826
 24931, 24990, 25095, 25154, 25259, 25318, 25423, 25482, 25587, 25646, 25751, 25810, 25915, 25974, 26079, 26138
 26243, 26302
*Elset, elset=AlongZ-In-El, instance=Tube-1, generate
    82,  19639,    123
*Nset, nset=AlongZ-O, instance=Tube-1
     5,    39,   169,   203,   333,   367,   497,   531,   661,   695,   825,   859,   989,  1023,  1153,  1187
  1317,  1351,  1481,  1515,  1645,  1679,  1809,  1843,  1973,  2007,  2137,  2171,  2301,  2335,  2465,  2499
  2629,  2663,  2793,  2827,  2957,  2991,  3121,  3155,  3285,  3319,  3449,  3483,  3613,  3647,  3777,  3811
  3941,  3975,  4105,  4139,  4269,  4303,  4433,  4467,  4597,  4631,  4761,  4795,  4925,  4959,  5089,  5123
  5253,  5287,  5417,  5451,  5581,  5615,  5745,  5779,  5909,  5943,  6073,  6107,  6237,  6271,  6401,  6435
  6565,  6599,  6729,  6763,  6893,  6927,  7057,  7091,  7221,  7255,  7385,  7419,  7549,  7583,  7713,  7747
  7877,  7911,  8041,  8075,  8205,  8239,  8369,  8403,  8533,  8567,  8697,  8731,  8861,  8895,  9025,  9059
  9189,  9223,  9353,  9387,  9517,  9551,  9681,  9715,  9845,  9879, 10009, 10043, 10173, 10207, 10337, 10371
 10501, 10535, 10665, 10699, 10829, 10863, 10993, 11027, 11157, 11191, 11321, 11355, 11485, 11519, 11649, 11683
 11813, 11847, 11977, 12011, 12141, 12175, 12305, 12339, 12469, 12503, 12633, 12667, 12797, 12831, 12961, 12995
 13125, 13159, 13289, 13323, 13453, 13487, 13617, 13651, 13781, 13815, 13945, 13979, 14109, 14143, 14273, 14307
 14437, 14471, 14601, 14635, 14765, 14799, 14929, 14963, 15093, 15127, 15257, 15291, 15421, 15455, 15585, 15619
 15749, 15783, 15913, 15947, 16077, 16111, 16241, 16275, 16405, 16439, 16569, 16603, 16733, 16767, 16897, 16931
 17061, 17095, 17225, 17259, 17389, 17423, 17553, 17587, 17717, 17751, 17881, 17915, 18045, 18079, 18209, 18243
 18373, 18407, 18537, 18571, 18701, 18735, 18865, 18899, 19029, 19063, 19193, 19227, 19357, 19391, 19521, 19555
 19685, 19719, 19849, 19883, 20013, 20047, 20177, 20211, 20341, 20375, 20505, 20539, 20669, 20703, 20833, 20867
 20997, 21031, 21161, 21195, 21325, 21359, 21489, 21523, 21653, 21687, 21817, 21851, 21981, 22015, 22145, 22179
 22309, 22343, 22473, 22507, 22637, 22671, 22801, 22835, 22965, 22999, 23129, 23163, 23293, 23327, 23457, 23491
 23621, 23655, 23785, 23819, 23949, 23983, 24113, 24147, 24277, 24311, 24441, 24475, 24605, 24639, 24769, 24803
 24933, 24967, 25097, 25131, 25261, 25295, 25425, 25459, 25589, 25623, 25753, 25787, 25917, 25951, 26081, 26115
 26245, 26279
*Elset, elset=AlongZ-O-El, instance=Tube-1, generate
    63,  19620,    123
*Nset, nset=Set-3, instance=Tube-1, generate
   1,  164,    1
*Elset, elset=Set-3, instance=Tube-1, generate
   1,  123,    1
*Nset, nset=Set-4, instance=Tube-1
     2,     3,     6,     7,    11,    12,    13,    14,    15,    16,    17,    18,    42,    43,    44,    45
    46,    47,    48,    49,    50,    51,    52,    62,    63,    64,    65,    66,    67,    68,    69,    70
    71,    72,    73,    74,    75,    76,    77,    78,    79,   166,   167,   170,   171,   175,   176,   177
   178,   179,   180,   181,   182,   206,   207,   208,   209,   210,   211,   212,   213,   214,   215,   216
   226,   227,   228,   229,   230,   231,   232,   233,   234,   235,   236,   237,   238,   239,   240,   241
   242,   243,   330,   331,   334,   335,   339,   340,   341,   342,   343,   344,   345,   346,   370,   371
   372,   373,   374,   375,   376,   377,   378,   379,   380,   390,   391,   392,   393,   394,   395,   396
   397,   398,   399,   400,   401,   402,   403,   404,   405,   406,   407,   494,   495,   498,   499,   503
   504,   505,   506,   507,   508,   509,   510,   534,   535,   536,   537,   538,   539,   540,   541,   542
   543,   544,   554,   555,   556,   557,   558,   559,   560,   561,   562,   563,   564,   565,   566,   567
   568,   569,   570,   571,   658,   659,   662,   663,   667,   668,   669,   670,   671,   672,   673,   674
   698,   699,   700,   701,   702,   703,   704,   705,   706,   707,   708,   718,   719,   720,   721,   722
   723,   724,   725,   726,   727,   728,   729,   730,   731,   732,   733,   734,   735,   822,   823,   826
   827,   831,   832,   833,   834,   835,   836,   837,   838,   862,   863,   864,   865,   866,   867,   868
   869,   870,   871,   872,   882,   883,   884,   885,   886,   887,   888,   889,   890,   891,   892,   893
   894,   895,   896,   897,   898,   899,   986,   987,   990,   991,   995,   996,   997,   998,   999,  1000
  1001,  1002,  1026,  1027,  1028,  1029,  1030,  1031,  1032,  1033,  1034,  1035,  1036,  1046,  1047,  1048
  1049,  1050,  1051,  1052,  1053,  1054,  1055,  1056,  1057,  1058,  1059,  1060,  1061,  1062,  1063,  1150
  1151,  1154,  1155,  1159,  1160,  1161,  1162,  1163,  1164,  1165,  1166,  1190,  1191,  1192,  1193,  1194
  1195,  1196,  1197,  1198,  1199,  1200,  1210,  1211,  1212,  1213,  1214,  1215,  1216,  1217,  1218,  1219
** ... 393 like lines cut
*Elset, elset=Set-4, instance=Tube-1
     3,     6,     9,    12,    15,    18,    21,    24,    27,    28,    31,    34,    37,    40,    43,    46
    49,    52,    55,    58,    61,    64,    67,    70,    73,    76,    79,    82,    85,    90,    93,    96
    99,   102,   105,   108,   111,   114,   117,   120,   123,   126,   129,   132,   135,   138,   141,   144
   147,   150,   151,   154,   157,   160,   163,   166,   169,   172,   175,   178,   181,   184,   187,   190
   193,   196,   199,   202,   205,   208,   213,   216,   219,   222,   225,   228,   231,   234,   237,   240
   243,   246,   249,   252,   255,   258,   261,   264,   267,   270,   273,   274,   277,   280,   283,   286
   289,   292,   295,   298,   301,   304,   307,   310,   313,   316,   319,   322,   325,   328,   331,   336
   339,   342,   345,   348,   351,   354,   357,   360,   363,   366,   369,   372,   375,   378,   381,   384
   387,   390,   393,   396,   397,   400,   403,   406,   409,   412,   415,   418,   421,   424,   427,   430
   433,   436,   439,   442,   445,   448,   451,   454,   459,   462,   465,   468,   471,   474,   477,   480
   483,   486,   489,   492,   495,   498,   501,   504,   507,   510,   513,   516,   519,   520,   523,   526
   529,   532,   535,   538,   541,   544,   547,   550,   553,   556,   559,   562,   565,   568,   571,   574
   577,   582,   585,   588,   591,   594,   597,   600,   603,   606,   609,   612,   615,   618,   621,   624
   627,   630,   633,   636,   639,   642,   643,   646,   649,   652,   655,   658,   661,   664,   667,   670
   673,   676,   679,   682,   685,   688,   691,   694,   697,   700,   705,   708,   711,   714,   717,   720
   723,   726,   729,   732,   735,   738,   741,   744,   747,   750,   753,   756,   759,   762,   765,   766
   769,   772,   775,   778,   781,   784,   787,   790,   793,   796,   799,   802,   805,   808,   811,   814
   817,   820,   823,   828,   831,   834,   837,   840,   843,   846,   849,   852,   855,   858,   861,   864
   867,   870,   873,   876,   879,   882,   885,   888,   889,   892,   895,   898,   901,   904,   907,   910
   913,   916,   919,   922,   925,   928,   931,   934,   937,   940,   943,   946,   951,   954,   957,   960
** ... 390 like lines cut
*Nset, nset=Set-5, instance=Tube-1
     1,     4,     5,     8,    21,    22,    23,    24,    25,    26,    27,    28,    29,    30,    31,    32
    33,    34,    35,    36,    37,    38,    39,    55,    56,    57,    58,    59,    60,    61,    80,    81
    82,    83,    84,    85,    86,    87,    88,    89,    90,   165,   168,   169,   172,   185,   186,   187
   188,   189,   190,   191,   192,   193,   194,   195,   196,   197,   198,   199,   200,   201,   202,   203
   219,   220,   221,   222,   223,   224,   225,   244,   245,   246,   247,   248,   249,   250,   251,   252
   253,   254,   329,   332,   333,   336,   349,   350,   351,   352,   353,   354,   355,   356,   357,   358
   359,   360,   361,   362,   363,   364,   365,   366,   367,   383,   384,   385,   386,   387,   388,   389
   408,   409,   410,   411,   412,   413,   414,   415,   416,   417,   418,   493,   496,   497,   500,   513
   514,   515,   516,   517,   518,   519,   520,   521,   522,   523,   524,   525,   526,   527,   528,   529
   530,   531,   547,   548,   549,   550,   551,   552,   553,   572,   573,   574,   575,   576,   577,   578
   579,   580,   581,   582,   657,   660,   661,   664,   677,   678,   679,   680,   681,   682,   683,   684
   685,   686,   687,   688,   689,   690,   691,   692,   693,   694,   695,   711,   712,   713,   714,   715
   716,   717,   736,   737,   738,   739,   740,   741,   742,   743,   744,   745,   746,   821,   824,   825
   828,   841,   842,   843,   844,   845,   846,   847,   848,   849,   850,   851,   852,   853,   854,   855
   856,   857,   858,   859,   875,   876,   877,   878,   879,   880,   881,   900,   901,   902,   903,   904
   905,   906,   907,   908,   909,   910,   985,   988,   989,   992,  1005,  1006,  1007,  1008,  1009,  1010
  1011,  1012,  1013,  1014,  1015,  1016,  1017,  1018,  1019,  1020,  1021,  1022,  1023,  1039,  1040,  1041
  1042,  1043,  1044,  1045,  1064,  1065,  1066,  1067,  1068,  1069,  1070,  1071,  1072,  1073,  1074,  1149
  1152,  1153,  1156,  1169,  1170,  1171,  1172,  1173,  1174,  1175,  1176,  1177,  1178,  1179,  1180,  1181
  1182,  1183,  1184,  1185,  1186,  1187,  1203,  1204,  1205,  1206,  1207,  1208,  1209,  1228,  1229,  1230
** ... 393 like lines cut
*Elset, elset=Set-5, instance=Tube-1
     1,     4,     7,    10,    13,    16,    19,    22,    25,    30,    33,    36,    39,    42,    45,    48
    51,    54,    57,    60,    63,    66,    69,    72,    75,    78,    81,    84,    87,    88,    91,    94
    97,   100,   103,   106,   109,   112,   115,   118,   121,   124,   127,   130,   133,   136,   139,   142
   145,   148,   153,   156,   159,   162,   165,   168,   171,   174,   177,   180,   183,   186,   189,   192
   195,   198,   201,   204,   207,   210,   211,   214,   217,   220,   223,   226,   229,   232,   235,   238
   241,   244,   247,   250,   253,   256,   259,   262,   265,   268,   271,   276,   279,   282,   285,   288
   291,   294,   297,   300,   303,   306,   309,   312,   315,   318,   321,   324,   327,   330,   333,   334
   337,   340,   343,   346,   349,   352,   355,   358,   361,   364,   367,   370,   373,   376,   379,   382
   385,   388,   391,   394,   399,   402,   405,   408,   411,   414,   417,   420,   423,   426,   429,   432
   435,   438,   441,   444,   447,   450,   453,   456,   457,   460,   463,   466,   469,   472,   475,   478
   481,   484,   487,   490,   493,   496,   499,   502,   505,   508,   511,   514,   517,   522,   525,   528
   531,   534,   537,   540,   543,   546,   549,   552,   555,   558,   561,   564,   567,   570,   573,   576
   579,   580,   583,   586,   589,   592,   595,   598,   601,   604,   607,   610,   613,   616,   619,   622
   625,   628,   631,   634,   637,   640,   645,   648,   651,   654,   657,   660,   663,   666,   669,   672
   675,   678,   681,   684,   687,   690,   693,   696,   699,   702,   703,   706,   709,   712,   715,   718
   721,   724,   727,   730,   733,   736,   739,   742,   745,   748,   751,   754,   757,   760,   763,   768
   771,   774,   777,   780,   783,   786,   789,   792,   795,   798,   801,   804,   807,   810,   813,   816
   819,   822,   825,   826,   829,   832,   835,   838,   841,   844,   847,   850,   853,   856,   859,   862
   865,   868,   871,   874,   877,   880,   883,   886,   891,   894,   897,   900,   903,   906,   909,   912
   915,   918,   921,   924,   927,   930,   933,   936,   939,   942,   945,   948,   949,   952,   955,   958
** ... 390 like lines cut
*Nset, nset=Set-6, instance=Tube-1
 6,
*Nset, nset=TubeEnd, instance=Tube-1, generate
   1,  164,    1
*Elset, elset=TubeEnd, instance=Tube-1, generate
   1,  123,    1
*Nset, nset=TubeInlet, instance=Tube-1, generate
 26241,  26404,      1
*Elset, elset=TubeInlet, instance=Tube-1, generate
 19558,  19680,      1
*Elset, elset=_Ri_S4, internal, instance=Tube-1
     3,     6,     9,    12,    15,    18,    21,    24,    27,    90,    93,    96,    99,   102,   105,   108
   111,   114,   117,   120,   123,   126,   129,   132,   135,   138,   141,   144,   147,   150,   213,   216
   219,   222,   225,   228,   231,   234,   237,   240,   243,   246,   249,   252,   255,   258,   261,   264
   267,   270,   273,   336,   339,   342,   345,   348,   351,   354,   357,   360,   363,   366,   369,   372
   375,   378,   381,   384,   387,   390,   393,   396,   459,   462,   465,   468,   471,   474,   477,   480
   483,   486,   489,   492,   495,   498,   501,   504,   507,   510,   513,   516,   519,   582,   585,   588
   591,   594,   597,   600,   603,   606,   609,   612,   615,   618,   621,   624,   627,   630,   633,   636
   639,   642,   705,   708,   711,   714,   717,   720,   723,   726,   729,   732,   735,   738,   741,   744
   747,   750,   753,   756,   759,   762,   765,   828,   831,   834,   837,   840,   843,   846,   849,   852
   855,   858,   861,   864,   867,   870,   873,   876,   879,   882,   885,   888,   951,   954,   957,   960
   963,   966,   969,   972,   975,   978,   981,   984,   987,   990,   993,   996,   999,  1002,  1005,  1008
  1011,  1074,  1077,  1080,  1083,  1086,  1089,  1092,  1095,  1098,  1101,  1104,  1107,  1110,  1113,  1116
  1119,  1122,  1125,  1128,  1131,  1134,  1197,  1200,  1203,  1206,  1209,  1212,  1215,  1218,  1221,  1224
  1227,  1230,  1233,  1236,  1239,  1242,  1245,  1248,  1251,  1254,  1257,  1320,  1323,  1326,  1329,  1332
  1335,  1338,  1341,  1344,  1347,  1350,  1353,  1356,  1359,  1362,  1365,  1368,  1371,  1374,  1377,  1380
  1443,  1446,  1449,  1452,  1455,  1458,  1461,  1464,  1467,  1470,  1473,  1476,  1479,  1482,  1485,  1488
  1491,  1494,  1497,  1500,  1503,  1566,  1569,  1572,  1575,  1578,  1581,  1584,  1587,  1590,  1593,  1596
  1599,  1602,  1605,  1608,  1611,  1614,  1617,  1620,  1623,  1626,  1689,  1692,  1695,  1698,  1701,  1704
  1707,  1710,  1713,  1716,  1719,  1722,  1725,  1728,  1731,  1734,  1737,  1740,  1743,  1746,  1749,  1812
  1815,  1818,  1821,  1824,  1827,  1830,  1833,  1836,  1839,  1842,  1845,  1848,  1851,  1854,  1857,  1860
** ... 190 like lines cut
*Elset, elset=_Ri_S6, internal, instance=Tube-1
    28,    31,    34,    37,    40,    43,    46,    49,    52,    55,    58,    61,    64,    67,    70,    73
    76,    79,    82,    85,   151,   154,   157,   160,   163,   166,   169,   172,   175,   178,   181,   184
   187,   190,   193,   196,   199,   202,   205,   208,   274,   277,   280,   283,   286,   289,   292,   295
   298,   301,   304,   307,   310,   313,   316,   319,   322,   325,   328,   331,   397,   400,   403,   406
   409,   412,   415,   418,   421,   424,   427,   430,   433,   436,   439,   442,   445,   448,   451,   454
   520,   523,   526,   529,   532,   535,   538,   541,   544,   547,   550,   553,   556,   559,   562,   565
   568,   571,   574,   577,   643,   646,   649,   652,   655,   658,   661,   664,   667,   670,   673,   676
   679,   682,   685,   688,   691,   694,   697,   700,   766,   769,   772,   775,   778,   781,   784,   787
   790,   793,   796,   799,   802,   805,   808,   811,   814,   817,   820,   823,   889,   892,   895,   898
   901,   904,   907,   910,   913,   916,   919,   922,   925,   928,   931,   934,   937,   940,   943,   946
  1012,  1015,  1018,  1021,  1024,  1027,  1030,  1033,  1036,  1039,  1042,  1045,  1048,  1051,  1054,  1057
  1060,  1063,  1066,  1069,  1135,  1138,  1141,  1144,  1147,  1150,  1153,  1156,  1159,  1162,  1165,  1168
  1171,  1174,  1177,  1180,  1183,  1186,  1189,  1192,  1258,  1261,  1264,  1267,  1270,  1273,  1276,  1279
  1282,  1285,  1288,  1291,  1294,  1297,  1300,  1303,  1306,  1309,  1312,  1315,  1381,  1384,  1387,  1390
  1393,  1396,  1399,  1402,  1405,  1408,  1411,  1414,  1417,  1420,  1423,  1426,  1429,  1432,  1435,  1438
  1504,  1507,  1510,  1513,  1516,  1519,  1522,  1525,  1528,  1531,  1534,  1537,  1540,  1543,  1546,  1549
  1552,  1555,  1558,  1561,  1627,  1630,  1633,  1636,  1639,  1642,  1645,  1648,  1651,  1654,  1657,  1660
  1663,  1666,  1669,  1672,  1675,  1678,  1681,  1684,  1750,  1753,  1756,  1759,  1762,  1765,  1768,  1771
  1774,  1777,  1780,  1783,  1786,  1789,  1792,  1795,  1798,  1801,  1804,  1807,  1873,  1876,  1879,  1882
  1885,  1888,  1891,  1894,  1897,  1900,  1903,  1906,  1909,  1912,  1915,  1918,  1921,  1924,  1927,  1930
** ... 180 like lines cut
*Surface, type=ELEMENT, name=Ri
_Ri_S4, S4
_Ri_S6, S6
*Nset, nset=_T-Cylindrical, internal
TubeEnd, 
TubeInlet, 
Set-4, 
Set-5, 
*Transform, nset=_T-Cylindrical, type=C
          0.,           0.,           0.,           0.,           0.,           1.
*Orientation, name=Cylindrical, system=CYLINDRICAL
          0.,           0.,           0.,           0.,           0.,           1.
1, 0.
*End Assembly
*Amplitude, name=Amp-1, definition=SMOOTH STEP
             0.,              0.,             0.2,             0.3,              1.,              1.
** 
** MATERIALS
** 
*Material, name=Material-1
*Elastic
 1e+06, 0.3
** 
** BOUNDARY CONDITIONS
** 
** Name: BC-1 Type: Displacement/Rotation
*Boundary
TubeEnd, 1, 1
TubeEnd, 2, 2
TubeEnd, 3, 3
** Name: BC-2 Type: Displacement/Rotation
*Boundary
TubeInlet, 2, 2

** ----------------------------------------------------------------
** 
** STEP: Step-1
** 
*Step, name=Step-1, nlgeom=YES, inc=10000, convert sdi=YES
*Static
10., 100., 1., 10.
** 
*Adaptive Mesh Controls, name=Ada-1, geometric enhancement=YES
0.0, 1.0
*Adaptive Mesh, elset=Tube-1.Tube, controls=Ada-1, frequency=1, mesh sweeps=1, op=NEW
** 
** ADAPTIVE MESH CONSTRAINTS
** Name: Ada-Cons-2 Type: Velocity/Angular velocity
*Adaptive Mesh Constraint, user, type=VELOCITY, op=new
Set-4,1,,1e-6
**
** BOUNDARY CONDITIONS
** 
** Name: BC-1 Type: Displacement/Rotation
*Boundary, op=NEW
TubeEnd, 2, 2
** Name: BC-2 Type: Displacement/Rotation
*Boundary, op=NEW
TubeInlet, 2, 2
TubeInlet, 3, 3
** Name: BC-4 Type: Displacement/Rotation
*Boundary, op=NEW
Set-4, 2, 2
** Name: BC-5 Type: Displacement/Rotation
*Boundary, op=NEW
Set-5, 2, 2
** 
** LOADS
** 
** Name: Load-4   Type: Surface traction
*Dsload, orientation=Cylindrical
Ri, TRVECNU, 1., 1., 0., 0.
** 
** OUTPUT REQUESTS
** 
*Restart, write, frequency=0
** 
** FIELD OUTPUT: F-Output-1
** 
*Output, field
*Node Output
CF, COORD, RF, U
*Element Output, directions=YES
LE, PE, PEEQ, PEMAG, S
*Contact Output
CDISP, CSTRESS
** 
** HISTORY OUTPUT: H-Output-1
** 
*Output, history, variable=PRESELECT
*End Step
